Version 4
SHEET 1 1856 1728
WIRE 336 192 208 192
WIRE 464 192 416 192
WIRE 464 256 464 192
WIRE 544 256 464 256
WIRE 688 256 624 256
WIRE 464 320 464 256
WIRE 464 320 416 320
WIRE 336 336 208 336
WIRE 688 336 688 256
WIRE 736 336 688 336
WIRE 464 352 416 352
WIRE 464 416 464 352
WIRE 544 416 464 416
WIRE 688 416 688 336
WIRE 688 416 624 416
WIRE 336 480 208 480
WIRE 464 480 464 416
WIRE 464 480 416 480
FLAG 208 192 CI
IOPIN 208 192 In
FLAG 208 336 G
IOPIN 208 336 In
FLAG 208 480 P
IOPIN 208 480 In
FLAG 736 336 CO
IOPIN 736 336 Out
SYMBOL iilg1 368 192 R0
SYMATTR InstName X1
SYMBOL iilg1 368 480 R0
SYMATTR InstName X2
SYMBOL iilg2 368 336 R0
SYMATTR InstName X3
SYMBOL iilg1 576 256 R0
SYMATTR InstName X4
SYMBOL iilg1 576 416 R0
SYMATTR InstName X5
TEXT 336 528 Left 2 ;Carry bit 1 generator
