Version 4
SHEET 1 1856 1728
WIRE 464 -208 352 -208
WIRE 576 -208 464 -208
WIRE 704 -208 656 -208
WIRE 272 -176 208 -176
WIRE 432 -176 352 -176
WIRE 400 -144 352 -144
WIRE 432 -64 432 -176
WIRE 576 -64 432 -64
WIRE 704 -64 704 -208
WIRE 704 -64 656 -64
WIRE 752 -64 704 -64
WIRE 432 -48 432 -64
WIRE 432 -48 352 -48
WIRE 272 -32 208 -32
WIRE 464 -16 464 -208
WIRE 464 -16 352 -16
WIRE 272 80 208 80
WIRE 400 80 400 -144
WIRE 400 80 352 80
WIRE 576 80 400 80
WIRE 704 80 704 -64
WIRE 704 80 656 80
WIRE 272 176 208 176
WIRE 432 176 432 -48
WIRE 432 176 352 176
WIRE 272 272 208 272
WIRE 464 272 464 -16
WIRE 464 272 352 272
FLAG 208 272 CI
IOPIN 208 272 In
FLAG 208 -176 G1
IOPIN 208 -176 In
FLAG 208 176 P0
IOPIN 208 176 In
FLAG 752 -64 CO
IOPIN 752 -64 Out
FLAG 208 -32 G0
IOPIN 208 -32 In
FLAG 208 80 P1
IOPIN 208 80 In
SYMBOL iilg3 304 -176 R0
SYMATTR InstName X1
SYMBOL iilg2 304 -32 R0
SYMATTR InstName X2
SYMBOL iilg1 304 80 R0
SYMATTR InstName X3
SYMBOL iilg1 304 176 R0
SYMATTR InstName X4
SYMBOL iilg1 304 272 R0
SYMATTR InstName X5
SYMBOL iilg1 608 -208 R0
SYMATTR InstName X6
SYMBOL iilg1 608 -64 R0
SYMATTR InstName X7
SYMBOL iilg1 608 80 R0
SYMATTR InstName X8
TEXT 512 280 Left 2 ;Carry bit 2 generator
