Version 4
SHEET 1 1200 840
WIRE 432 0 288 0
WIRE 544 0 432 0
WIRE 672 0 624 0
WIRE 400 32 288 32
WIRE 208 48 160 48
WIRE 368 64 288 64
WIRE 336 96 288 96
WIRE 400 96 400 32
WIRE 544 96 400 96
WIRE 672 96 672 0
WIRE 672 96 624 96
WIRE 400 192 400 96
WIRE 400 192 288 192
WIRE 672 192 672 96
WIRE 720 192 672 192
WIRE 208 224 160 224
WIRE 368 224 368 64
WIRE 368 224 288 224
WIRE 336 256 336 96
WIRE 336 256 288 256
WIRE 368 288 368 224
WIRE 544 288 368 288
WIRE 672 288 672 192
WIRE 672 288 624 288
WIRE 368 352 368 288
WIRE 368 352 288 352
WIRE 208 368 160 368
WIRE 336 368 336 256
WIRE 544 368 336 368
WIRE 672 368 672 288
WIRE 672 368 624 368
WIRE 336 384 336 368
WIRE 336 384 288 384
WIRE 208 480 160 480
WIRE 432 480 432 0
WIRE 432 480 288 480
WIRE 208 576 160 576
WIRE 400 576 400 192
WIRE 400 576 288 576
WIRE 208 672 160 672
WIRE 368 672 368 352
WIRE 368 672 288 672
WIRE 208 768 160 768
WIRE 336 768 336 384
WIRE 336 768 288 768
FLAG 160 48 G2
IOPIN 160 48 In
FLAG 160 224 G1
IOPIN 160 224 In
FLAG 160 368 G0
IOPIN 160 368 In
FLAG 160 480 P2
IOPIN 160 480 In
FLAG 160 576 P1
IOPIN 160 576 In
FLAG 160 672 P0
IOPIN 160 672 In
FLAG 160 768 CI
IOPIN 160 768 In
FLAG 720 192 CO
IOPIN 720 192 Out
SYMBOL iilg4 240 48 R0
SYMATTR InstName X1
SYMBOL iilg3 240 224 R0
SYMATTR InstName X2
SYMBOL iilg2 240 368 R0
SYMATTR InstName X3
SYMBOL iilg1 240 480 R0
SYMATTR InstName X4
SYMBOL iilg1 240 576 R0
SYMATTR InstName X5
SYMBOL iilg1 240 672 R0
SYMATTR InstName X6
SYMBOL iilg1 240 768 R0
SYMATTR InstName X7
SYMBOL iilg1 576 0 R0
SYMATTR InstName X8
SYMBOL iilg1 576 96 R0
SYMATTR InstName X9
SYMBOL iilg1 576 288 R0
SYMATTR InstName X10
SYMBOL iilg1 576 368 R0
SYMATTR InstName X11
TEXT 240 824 Left 2 ;Carry bit 3 generator
