Version 4
SHEET 1 4164 944
WIRE -16 -752 -16 -768
WIRE -16 -720 -16 -752
WIRE -16 -608 -16 -640
WIRE -336 -304 -384 -304
WIRE -176 -304 -256 -304
WIRE 208 -304 -176 -304
WIRE -384 -288 -384 -304
WIRE -384 -192 -384 -208
WIRE 512 -192 480 -192
WIRE 208 -160 208 -304
WIRE 336 -160 208 -160
WIRE 432 -160 400 -160
WIRE 512 -160 432 -160
WIRE 640 -160 608 -160
WIRE 736 -160 640 -160
WIRE 336 -128 144 -128
WIRE 432 -128 400 -128
WIRE 512 -128 432 -128
WIRE 336 -96 208 -96
WIRE 432 -96 400 -96
WIRE 448 -96 432 -96
WIRE -336 -80 -384 -80
WIRE -176 -80 -256 -80
WIRE 144 -80 144 -128
WIRE 144 -80 -176 -80
WIRE -384 -64 -384 -80
WIRE 448 -48 448 -96
WIRE 736 -48 448 -48
WIRE -384 32 -384 16
WIRE -192 112 -256 112
WIRE 208 112 208 -96
WIRE 208 112 -192 112
WIRE -336 128 -384 128
WIRE -384 144 -384 128
WIRE -192 144 -256 144
WIRE 480 144 480 -192
WIRE 480 144 -192 144
WIRE -384 240 -384 224
FLAG -16 -608 0
FLAG -16 -752 VDD
FLAG -384 -192 0
FLAG -384 32 0
FLAG -384 240 0
FLAG -176 -304 A
FLAG -176 -80 B
FLAG 432 -160 G
FLAG 432 -128 P
FLAG 432 -96 S
FLAG 640 -160 CO
FLAG -192 112 C_1
FLAG -192 144 C_2
SYMBOL voltage -16 -736 R0
SYMATTR InstName VDD
SYMATTR Value {VDD}
SYMBOL voltage -384 -304 M0
SYMATTR InstName VA0
SYMATTR Value PULSE({VDD} 0 {t1} 100n 100n {2 * t1 - 100n} {4 * t1})
SYMBOL voltage -384 -80 M0
SYMATTR InstName VB0
SYMATTR Value PULSE({VDD} 0 {2 * t1} 100n 100n {4 * t1 - 100n} {8 * t1})
SYMBOL voltage -384 128 M0
SYMATTR InstName VC0
SYMATTR Value PULSE({VDD} 0 {4 * t1} 100n 100n {4 * t1 - 100n} {8  * t1})
SYMBOL cla1 560 -160 R0
SYMATTR InstName X2
SYMBOL iilin1 -304 -304 R0
SYMATTR InstName X3
SYMBOL iilin1 -304 -80 R0
SYMATTR InstName X4
SYMBOL iilin2 -304 128 R0
SYMATTR InstName X5
SYMBOL iilout 752 -160 R0
SYMATTR InstName X6
SYMBOL iilout 752 -48 R0
SYMATTR InstName X7
SYMBOL fag1p1 368 -128 R0
SYMATTR InstName X8
TEXT -448 -752 Left 2 !.global VDD\n.param VDD=5V\n.param IB=100u\n.param RB={(VDD - 0.65) / IB}\n.param t1=10us\n.tran {9 * t1}
