Version 4
SHEET 1 964 680
WIRE 656 112 656 96
WIRE 656 144 656 112
WIRE 656 256 656 224
WIRE 896 320 -112 320
WIRE 896 384 896 320
WIRE 896 384 880 384
WIRE -112 400 -112 320
WIRE -96 400 -112 400
WIRE 16 400 -16 400
WIRE 128 400 96 400
WIRE 240 400 208 400
WIRE 352 400 320 400
WIRE 464 400 432 400
WIRE 576 400 544 400
WIRE 688 400 656 400
WIRE 800 400 768 400
WIRE 896 416 880 416
WIRE 912 416 896 416
FLAG 656 256 0
FLAG 656 112 VDD
FLAG 896 416 Y
SYMBOL voltage 656 128 R0
SYMATTR InstName VDD1
SYMATTR Value {VDD}
SYMBOL iilg1 -64 400 R0
SYMATTR InstName X1
SYMBOL iilg1 48 400 R0
SYMATTR InstName X2
SYMBOL iilg1 160 400 R0
SYMATTR InstName X3
SYMBOL iilg1 272 400 R0
SYMATTR InstName X4
SYMBOL iilg1 384 400 R0
SYMATTR InstName X5
SYMBOL iilg1 496 400 R0
SYMATTR InstName X6
SYMBOL iilg1 608 400 R0
SYMATTR InstName X7
SYMBOL iilg1 720 400 R0
SYMATTR InstName X8
SYMBOL iilg2 832 400 R0
SYMATTR InstName X9
SYMBOL iilout 928 416 R0
SYMATTR InstName X10
TEXT -112 112 Left 2 !.global VDD\n.param VDD=5V\n.param IB=40u\n.param RB={(VDD - 0.65) / IB}\n.tran {3u*exp(-0.5947*log(IB))}\n.meas tran td1 trig v(y) val=0.3 rise=3 targ v(y) val=0.3 rise=4\n.meas tran td2 param {td1 / (2 * 9)}
